1
    SWAT Mar 17 2015    VER 2012/Rev 636_smrt                                                            0/ 0/   0      0: 0: 0

    General Input/Output section (file.cio):                                        
    12/1/2025 12:00:00 AM ARCGIS-SWAT interface AV                                  
                                                                                    
         Number of years in run:   19
         Area of watershed:      484.354 km2
         Random number generator cycles: 0, use default numbers

         Initial random number seed: wet/dry day prob        748932582
         Initial random number seed: radiation              1948832765
         Initial random number seed: precipitation           857034417
         Initial random number seed: 0.5 hr rainfall          67377721
         Initial random number seed: wind speed              366304404
         Initial random number seed: irrigation             1094585182
         Initial random number seed: relative humidity      1767585417
         Initial random number seed: max temperature         608439319
         Initial random number seed: min temperature         592757081

         Precipitation data used in run:
          Multiple gages read for watershed
             Daily rainfall data used

         Temperature data used in run:
          Multiple gages read for watershed

         PET method used: Penman-Monteith

         Rainfall/Runoff/Routing Option:
          Daily rainfall data
          Runoff estimated with curve number method
          Daily stream routing
           Variable Storage routing method
           Channel dimensions remain constant
           Subbasin algae/CBOD loadings not modeled
           In-stream nutrient transformations modeled using QUAL2E equations

         Subbasin Input Summary:
          Sub Latitude  Elev(m) #HRUs Ponds Elevbnds Wetlnd
            1    29.49   224.21    54                   
            2    29.49   260.97    33                   
            3    29.49   335.63    35                   
            4    29.49   314.37    39                   
            5    29.49   351.72    38                   

         HRU Input Summary Table 1:
          Sub   HRU   Area(ha) Slope SlpLgth(m) Ovrlnd_N CondII_CN TimeConc(hr) ESCO EPCO
            1      1     431.21 0.042      91.46    0.100     86.22        0.777 0.95 1.00
            1      2     159.02 0.012     121.95    0.100     86.22        1.038 0.95 1.00
            1      3     489.20 0.040      91.46    0.100     86.22        0.812 0.95 1.00
            1      4     190.07 0.013     121.95    0.100     86.22        1.032 0.95 1.00
            1      5     330.89 0.035      91.46    0.100     86.22        0.759 0.95 1.00
            1      6     145.17 0.035      91.46    0.100     86.22        0.664 0.95 1.00
            1      7     163.03 0.012     121.95    0.100     86.22        1.040 0.95 1.00
            1      8     123.53 0.034      91.46    0.100     73.82        0.657 0.95 1.00
            1      9     227.79 0.011     121.95    0.100     73.82        1.098 0.95 1.00
            1     10     170.64 0.011     121.95    0.100     86.22        1.069 0.95 1.00
            1     11     113.37 0.034      91.46    0.100     86.22        0.651 0.95 1.00
            1     12     541.13 0.009     121.95    0.100     81.88        1.310 0.95 1.00
            1     13     161.32 0.035      91.46    0.100     81.88        0.673 0.95 1.00
            1     14     464.19 0.008     121.95    0.100     86.22        1.311 0.95 1.00
            1     15     545.00 0.042      91.46    0.100     81.09        0.830 0.95 1.00
            1     16     204.97 0.012     121.95    0.100     81.09        1.062 0.95 1.00
            1     17     504.99 0.039      91.46    0.100     81.09        0.824 0.95 1.00
            1     18     378.04 0.035      91.46    0.100     81.09        0.782 0.95 1.00
            1     19     242.56 0.013     121.95    0.100     81.09        1.059 0.95 1.00
            1     20     445.65 0.044      91.46    0.100     81.09        0.776 0.95 1.00
            1     21     179.11 0.036      91.46    0.100     81.09        0.677 0.95 1.00
            1     22     190.54 0.012     121.95    0.100     81.09        1.054 0.95 1.00
            1     23     154.29 0.034      91.46    0.100     63.29        0.674 0.95 1.00
            1     24     349.08 0.010     121.95    0.100     63.29        1.187 0.95 1.00
            1     25     172.56 0.036      91.46    0.100     81.09        0.674 0.95 1.00
            1     26     188.19 0.011     121.95    0.100     81.09        1.078 0.95 1.00
            1     27     800.74 0.008     121.95    0.100     74.86        1.463 0.95 1.00
            1     28     447.75 0.008     121.95    0.100     81.09        1.303 0.95 1.00
            1     29     363.79 0.035      91.46    0.100     86.22        0.775 0.95 1.00
            1     30     235.30 0.012     121.95    0.100     86.22        1.077 0.95 1.00
            1     31     480.16 0.043      91.46    0.100     86.22        0.796 0.95 1.00
            1     32     210.80 0.011     121.95    0.100     86.22        1.090 0.95 1.00
            1     33     559.78 0.043      91.46    0.100     86.22        0.833 0.95 1.00
            1     34     234.16 0.036      91.46    0.100     73.82        0.706 0.95 1.00
            1     35     361.62 0.010     121.95    0.100     73.82        1.193 0.95 1.00
            1     36     265.91 0.043      91.46    0.100     86.22        0.692 0.95 1.00
            1     37     195.18 0.009     121.95    0.100     86.22        1.141 0.95 1.00
            1     38     760.57 0.009     121.95    0.100     81.88        1.409 0.95 1.00
            1     39     265.94 0.035      91.46    0.100     81.88        0.727 0.95 1.00
            1     40     467.91 0.008     121.95    0.100     86.22        1.313 0.95 1.00
            1     41     193.40 0.009     121.95    0.100     73.82        1.140 0.95 1.00
            1     42     252.32 0.044      91.46    0.100     73.82        0.682 0.95 1.00
            1     43     167.74 0.012     121.95    0.100     90.40        1.042 0.95 1.00
            1     44     195.06 0.035      91.46    0.100     90.40        0.690 0.95 1.00
            1     45     161.02 0.039      91.46    0.100     90.40        0.654 0.95 1.00
            1     46      69.32 0.012     121.95    0.100     90.40        0.987 0.95 1.00
            1     47     185.97 0.010     121.95    0.100     82.40        1.105 0.95 1.00
            1     48      73.26 0.032      91.46    0.100     82.40        0.639 0.95 1.00
            1     49     162.22 0.039      91.46    0.100     90.40        0.655 0.95 1.00
            1     50     113.12 0.011     121.95    0.100     90.40        1.037 0.95 1.00
            1     51     713.92 0.009     121.95    0.100     87.60        1.388 0.95 1.00
            1     52      60.96 0.034      91.46    0.100     90.40        0.621 0.95 1.00
            1     53     158.33 0.009     121.95    0.100     90.40        1.122 0.95 1.00
            1     54     523.52 0.009     121.95    0.100     90.40        1.302 0.95 1.00
            2     55     383.44 0.044      91.46    0.100     86.22        0.711 0.95 1.00
            2     56     154.03 0.012     121.95    0.100     86.22        1.019 0.95 1.00
            2     57     431.62 0.040      91.46    0.100     86.22        0.745 0.95 1.00
            2     58      51.65 0.043      91.46    0.100     86.22        0.570 0.95 1.00
            2     59      42.03 0.008     121.95    0.100     86.22        1.087 0.95 1.00
            2     60      82.24 0.039      91.46    0.100     73.82        0.601 0.95 1.00
            2     61      84.74 0.010     121.95    0.100     73.82        1.039 0.95 1.00
            2     62      70.18 0.011     121.95    0.100     73.82        1.004 0.95 1.00
            2     63      57.76 0.035      91.46    0.100     73.82        0.607 0.95 1.00
            2     64     160.30 0.013     121.95    0.100     81.09        0.999 0.95 1.00
            2     65     442.17 0.039      91.46    0.100     81.09        0.754 0.95 1.00
            2     66     348.50 0.044      91.46    0.100     81.09        0.696 0.95 1.00
            2     67      73.74 0.049      91.46    0.100     81.09        0.560 0.95 1.00
            2     68     299.92 0.038      91.46    0.100     86.22        0.701 0.95 1.00
            2     69     141.42 0.013     121.95    0.100     86.22        0.991 0.95 1.00
            2     70     204.82 0.042      91.46    0.100     86.22        0.644 0.95 1.00
            2     71      38.47 0.035      91.46    0.100     73.82        0.597 0.95 1.00
            2     72      50.05 0.012     121.95    0.100     73.82        0.969 0.95 1.00
            2     73      68.04 0.050      91.46    0.100     86.22        0.554 0.95 1.00
            2     74      19.06 0.013     121.95    0.100     86.22        0.930 0.95 1.00
            2     75      55.15 0.037      91.46    0.100     86.22        0.596 0.95 1.00
            2     76     150.53 0.037      91.46    0.100     90.40        0.641 0.95 1.00
            2     77     127.49 0.012     121.95    0.100     90.40        1.007 0.95 1.00
            2     78      48.59 0.041      91.46    0.100     90.40        0.576 0.95 1.00
            2     79      18.45 0.012     121.95    0.100     90.40        0.952 0.95 1.00
            2     80      38.11 0.035      91.46    0.100     82.40        0.597 0.95 1.00
            2     81      44.24 0.011     121.95    0.100     82.40        0.991 0.95 1.00
            2     82      29.88 0.041      91.46    0.100     90.40        0.566 0.95 1.00
            2     83      10.06 0.014     121.95    0.100     90.40        0.905 0.95 1.00
            2     84      37.24 0.038      91.46    0.100     90.40        0.582 0.95 1.00
            2     85      11.91 0.012     121.95    0.100     90.40        0.948 0.95 1.00
            2     86      21.66 0.035      91.46    0.100     82.40        0.588 0.95 1.00
            2     87      33.97 0.011     121.95    0.100     82.40        0.986 0.95 1.00
            3     88     155.77 0.126      24.39    0.100     77.00        0.267 0.95 1.00
            3     89     173.73 0.057      60.98    0.100     77.00        0.488 0.95 1.00
            3     90     301.52 0.042      91.46    0.100     70.00        0.704 0.95 1.00
            3     91     110.07 0.012     121.95    0.100     70.00        1.007 0.95 1.00
            3     92      80.20 0.058      60.98    0.100     77.00        0.437 0.95 1.00
            3     93     228.62 0.136      24.39    0.100     77.00        0.299 0.95 1.00
            3     94     149.37 0.163      18.29    0.100     77.00        0.225 0.95 1.00
            3     95     865.86 0.047      91.46    0.100     77.00        0.931 0.95 1.00
            3     96     245.53 0.053      60.98    0.100     77.00        0.532 0.95 1.00
            3     97     130.19 0.118      60.98    0.100     77.00        0.390 0.95 1.00
            3     98      88.06 0.130      24.39    0.100     86.22        0.230 0.95 1.00
            3     99      60.37 0.059      60.98    0.100     86.22        0.424 0.95 1.00
            3    100     576.37 0.047      91.46    0.100     86.22        0.810 0.95 1.00
            3    101      64.89 0.043      91.46    0.100     81.88        0.581 0.95 1.00
            3    102      27.71 0.010     121.95    0.100     81.88        1.013 0.95 1.00
            3    103      84.31 0.054      60.98    0.100     86.22        0.448 0.95 1.00
            3    104      87.34 0.123      24.39    0.100     86.22        0.233 0.95 1.00
            3    105     166.07 0.050      91.46    0.100     86.22        0.611 0.95 1.00
            3    106      70.28 0.120      24.39    0.100     86.22        0.224 0.95 1.00
            3    107     187.09 0.042      91.46    0.100     86.22        0.649 0.95 1.00
            3    108      73.77 0.012     121.95    0.100     86.22        0.987 0.95 1.00
            3    109      58.88 0.009     121.95    0.100     73.82        1.063 0.95 1.00
            3    110      49.38 0.040      91.46    0.100     73.82        0.584 0.95 1.00
            3    111     425.94 0.047      91.46    0.100     81.09        0.743 0.95 1.00
            3    112     186.73 0.057      60.98    0.100     81.09        0.495 0.95 1.00
            3    113     169.59 0.119      60.98    0.100     81.09        0.409 0.95 1.00
            3    114     247.52 0.050      60.98    0.100     81.09        0.540 0.95 1.00
            3    115      94.72 0.115      60.98    0.100     81.09        0.373 0.95 1.00
            3    116     313.26 0.042      91.46    0.100     81.09        0.710 0.95 1.00
            3    117     253.14 0.045      91.46    0.100     86.22        0.670 0.95 1.00
            3    118     130.46 0.055      60.98    0.100     86.22        0.470 0.95 1.00
            3    119      89.58 0.114      60.98    0.100     86.22        0.371 0.95 1.00
            3    120     157.73 0.050      60.98    0.100     86.22        0.496 0.95 1.00
            3    121      66.78 0.111      60.98    0.100     86.22        0.361 0.95 1.00
            3    122     315.76 0.042      91.46    0.100     86.22        0.711 0.95 1.00
            4    123      28.56 0.012     121.95    0.150     74.00        1.212 0.95 1.00
            4    124      89.52 0.039      91.46    0.150     74.00        0.745 0.95 1.00
            4    125     234.85 0.042      91.46    0.150     80.00        0.778 0.95 1.00
            4    126     224.82 0.049      91.46    0.150     80.00        0.743 0.95 1.00
            4    127     121.80 0.141      24.39    0.150     80.00        0.266 0.95 1.00
            4    128     124.21 0.051      60.98    0.150     80.00        0.561 0.95 1.00
            4    129     119.98 0.139      24.39    0.150     80.00        0.266 0.95 1.00
            4    130     440.46 0.040      91.46    0.150     80.00        0.851 0.95 1.00
            4    131     216.96 0.012     121.95    0.150     80.00        1.278 0.95 1.00
            4    132     447.01 0.044      91.46    0.100     77.00        0.685 0.95 1.00
            4    133     177.34 0.054      60.98    0.100     77.00        0.462 0.95 1.00
            4    134     223.15 0.144      24.39    0.100     77.00        0.251 0.95 1.00
            4    135     504.54 0.012     121.95    0.100     77.00        1.106 0.95 1.00
            4    136    1123.08 0.041      91.46    0.100     77.00        0.883 0.95 1.00
            4    137     548.05 0.050      60.98    0.100     77.00        0.583 0.95 1.00
            4    138     330.86 0.120      24.39    0.100     77.00        0.295 0.95 1.00
            4    139     584.18 0.041      91.46    0.100     81.09        0.736 0.95 1.00
            4    140     185.76 0.013     121.95    0.100     81.09        0.987 0.95 1.00
            4    141     391.74 0.045      91.46    0.100     81.09        0.665 0.95 1.00
            4    142     753.93 0.051      60.98    0.100     81.09        0.638 0.95 1.00
            4    143     317.13 0.115      60.98    0.100     81.09        0.426 0.95 1.00
            4    144     357.22 0.128      24.39    0.100     81.09        0.299 0.95 1.00
            4    145     288.89 0.057      60.98    0.100     81.09        0.491 0.95 1.00
            4    146      88.43 0.123      24.39    0.100     86.22        0.214 0.95 1.00
            4    147     110.83 0.056      60.98    0.100     86.22        0.435 0.95 1.00
            4    148     635.36 0.042      91.46    0.100     86.22        0.747 0.95 1.00
            4    149     224.74 0.012     121.95    0.100     86.22        1.022 0.95 1.00
            4    150     513.27 0.043      91.46    0.100     86.22        0.708 0.95 1.00
            4    151     550.71 0.050      91.46    0.100     86.22        0.695 0.95 1.00
            4    152     275.73 0.120      24.39    0.100     86.22        0.278 0.95 1.00
            4    153     375.96 0.144      24.39    0.100     86.22        0.299 0.95 1.00
            4    154     260.24 0.055      60.98    0.100     86.22        0.486 0.95 1.00
            4    155     284.19 0.044      91.46    0.100     86.22        0.636 0.95 1.00
            4    156     218.59 0.013     121.95    0.100     86.22        0.998 0.95 1.00
            4    157     471.75 0.041      91.46    0.100     86.22        0.704 0.95 1.00
            4    158     516.67 0.051      60.98    0.100     86.22        0.572 0.95 1.00
            4    159     229.93 0.116      60.98    0.100     86.22        0.398 0.95 1.00
            4    160     250.02 0.056      60.98    0.100     86.22        0.481 0.95 1.00
            4    161     204.97 0.120      24.39    0.100     86.22        0.255 0.95 1.00
            5    162      65.60 0.151      24.39    0.100     86.22        0.210 0.95 1.00
            5    163      57.96 0.055      60.98    0.100     86.22        0.431 0.95 1.00
            5    164     342.23 0.044      91.46    0.100     86.22        0.716 0.95 1.00
            5    165     162.50 0.045      91.46    0.100     81.88        0.626 0.95 1.00
            5    166      61.94 0.044      91.46    0.100     86.22        0.576 0.95 1.00
            5    167      62.82 0.010     121.95    0.100     86.22        1.034 0.95 1.00
            5    168     122.03 0.041      91.46    0.100     86.22        0.620 0.95 1.00
            5    169      46.91 0.012     121.95    0.100     86.22        0.972 0.95 1.00
            5    170     117.88 0.138      24.39    0.100     86.22        0.243 0.95 1.00
            5    171      77.12 0.058      60.98    0.100     86.22        0.436 0.95 1.00
            5    172     109.85 0.050      91.46    0.100     86.22        0.582 0.95 1.00
            5    173      79.16 0.137      24.39    0.100     86.22        0.222 0.95 1.00
            5    174      70.41 0.051      60.98    0.100     86.22        0.447 0.95 1.00
            5    175      37.43 0.119      60.98    0.100     86.22        0.338 0.95 1.00
            5    176     427.39 0.046      91.46    0.150     80.00        0.893 0.95 1.00
            5    177      61.83 0.056      60.98    0.150     80.00        0.539 0.95 1.00
            5    178      95.41 0.169      18.29    0.150     80.00        0.233 0.95 1.00
            5    179     361.40 0.042      91.46    0.150     74.00        0.882 0.95 1.00
            5    180     115.46 0.012     121.95    0.150     74.00        1.268 0.95 1.00
            5    181     164.70 0.010     121.95    0.150     80.00        1.361 0.95 1.00
            5    182     126.60 0.036      91.46    0.150     80.00        0.801 0.95 1.00
            5    183     181.64 0.058      60.98    0.150     80.00        0.597 0.95 1.00
            5    184     324.91 0.141      24.39    0.150     80.00        0.390 0.95 1.00
            5    185     110.69 0.055      60.98    0.150     80.00        0.568 0.95 1.00
            5    186      66.47 0.112      60.98    0.150     80.00        0.448 0.95 1.00
            5    187     329.29 0.057      60.98    0.150     80.00        0.670 0.95 1.00
            5    188     244.08 0.117      60.98    0.150     80.00        0.534 0.95 1.00
            5    189     786.53 0.048      91.46    0.100     77.00        0.896 0.95 1.00
            5    190     227.72 0.123      24.39    0.100     77.00        0.304 0.95 1.00
            5    191      87.42 0.058      60.98    0.100     77.00        0.441 0.95 1.00
            5    192     294.02 0.214      15.24    0.100     77.00        0.272 0.95 1.00
            5    193     814.09 0.045      91.46    0.100     70.00        0.917 0.95 1.00
            5    194     375.87 0.054      60.98    0.100     77.00        0.591 0.95 1.00
            5    195     305.68 0.126      24.39    0.100     77.00        0.340 0.95 1.00
            5    196     742.57 0.153      24.39    0.100     77.00        0.522 0.95 1.00
            5    197     261.59 0.057      60.98    0.100     77.00        0.531 0.95 1.00
            5    198     672.53 0.056      60.98    0.100     77.00        0.717 0.95 1.00
            5    199     534.83 0.117      60.98    0.100     77.00        0.580 0.95 1.00

         HRU CN Input Summary Table:
          Sub   HRU   Area(ha)  LULC      Soil    CN1    CN2    CN3  Wilting Point (mm H2O)  Field Capacity (mm H2O)  Saturation (mm H2O)
            1      1     431.21  BERM  Houston    71.7   86.2   94.6                   653.7                    322.8                390.0
            1      2     159.02  BERM  Houston    71.7   86.2   94.6                   653.7                    322.8                390.0
            1      3     489.20  BERM  Austin     71.7   86.2   94.6                   185.7                    119.2                165.1
            1      4     190.07  BERM  Austin     71.7   86.2   94.6                   170.8                    123.3                211.0
            1      5     330.89  BERM  Austin     71.7   86.2   94.6                   170.8                    123.3                211.0
            1      6     145.17  BERM  Houston    71.7   86.2   94.6                   560.2                    295.5                493.3
            1      7     163.03  BERM  Houston    71.7   86.2   94.6                   560.2                    295.5                493.3
            1      8     123.53  BERM  Lewisvil   55.5   73.8   88.0                   425.2                    280.0                381.2
            1      9     227.79  BERM  Lewisvil   55.5   73.8   88.0                   425.2                    280.0                381.2
            1     10     170.64  BERM  Houston    71.7   86.2   94.6                   557.9                    314.8                499.6
            1     11     113.37  BERM  Houston    71.7   86.2   94.6                   557.9                    314.8                499.6
            1     12     541.13  BERM  Lewisvil   65.5   81.9   92.5                   372.6                    250.7                341.8
            1     13     161.32  BERM  Lewisvil   65.5   81.9   92.5                   372.6                    250.7                341.8
            1     14     464.19  BERM  Branyon    71.7   86.2   94.6                   558.8                    345.1                459.4
            1     15     545.00  BERM  Houston    64.4   81.1   92.1                   653.7                    322.8                390.0
            1     16     204.97  BERM  Houston    64.4   81.1   92.1                   653.7                    322.8                390.0
            1     17     504.99  BERM  Austin     64.4   81.1   92.1                   185.7                    119.2                165.1
            1     18     378.04  BERM  Austin     64.4   81.1   92.1                   170.8                    123.3                211.0
            1     19     242.56  BERM  Austin     64.4   81.1   92.1                   170.8                    123.3                211.0
            1     20     445.65  BERM  Eckrant    64.4   81.1   92.1                    56.6                     25.2                101.9
            1     21     179.11  BERM  Houston    64.4   81.1   92.1                   560.2                    295.5                493.3
            1     22     190.54  BERM  Houston    64.4   81.1   92.1                   560.2                    295.5                493.3
            1     23     154.29  BERM  Lewisvil   43.9   63.3   81.0                   425.2                    280.0                381.2
            1     24     349.08  BERM  Lewisvil   43.9   63.3   81.0                   425.2                    280.0                381.2
            1     25     172.56  BERM  Houston    64.4   81.1   92.1                   557.9                    314.8                499.6
            1     26     188.19  BERM  Houston    64.4   81.1   92.1                   557.9                    314.8                499.6
            1     27     800.74  BERM  Lewisvil   56.7   74.9   88.7                   372.6                    250.7                341.8
            1     28     447.75  BERM  Branyon    64.4   81.1   92.1                   558.8                    345.1                459.4
            1     29     363.79  BERM  Austin     71.7   86.2   94.6                   170.8                    123.3                211.0
            1     30     235.30  BERM  Austin     71.7   86.2   94.6                   170.8                    123.3                211.0
            1     31     480.16  BERM  Houston    71.7   86.2   94.6                   653.7                    322.8                390.0
            1     32     210.80  BERM  Houston    71.7   86.2   94.6                   653.7                    322.8                390.0
            1     33     559.78  BERM  Eckrant    71.7   86.2   94.6                    56.6                     25.2                101.9
            1     34     234.16  BERM  Lewisvil   55.5   73.8   88.0                   425.2                    280.0                381.2
            1     35     361.62  BERM  Lewisvil   55.5   73.8   88.0                   425.2                    280.0                381.2
            1     36     265.91  BERM  Tinn       71.7   86.2   94.6                   535.2                    330.0                485.0
            1     37     195.18  BERM  Tinn       71.7   86.2   94.6                   535.2                    330.0                485.0
            1     38     760.57  BERM  Lewisvil   65.5   81.9   92.5                   372.6                    250.7                341.8
            1     39     265.94  BERM  Lewisvil   65.5   81.9   92.5                   372.6                    250.7                341.8
            1     40     467.91  BERM  Branyon    71.7   86.2   94.6                   558.8                    345.1                459.4
            1     41     193.40  BERM  Loire      55.5   73.8   88.0                   266.2                    354.0                653.1
            1     42     252.32  BERM  Loire      55.5   73.8   88.0                   266.2                    354.0                653.1
            1     43     167.74  BERM  Austin     78.7   90.4   96.4                   170.8                    123.3                211.0
            1     44     195.06  BERM  Austin     78.7   90.4   96.4                   170.8                    123.3                211.0
            1     45     161.02  BERM  Austin     78.7   90.4   96.4                   185.7                    119.2                165.1
            1     46      69.32  BERM  Austin     78.7   90.4   96.4                   185.7                    119.2                165.1
            1     47     185.97  BERM  Lewisvil   66.2   82.4   92.8                   425.2                    280.0                381.2
            1     48      73.26  BERM  Lewisvil   66.2   82.4   92.8                   425.2                    280.0                381.2
            1     49     162.22  BERM  Houston    78.7   90.4   96.4                   653.7                    322.8                390.0
            1     50     113.12  BERM  Houston    78.7   90.4   96.4                   653.7                    322.8                390.0
            1     51     713.92  BERM  Lewisvil   73.9   87.6   95.2                   372.6                    250.7                341.8
            1     52      60.96  BERM  Branyon    78.7   90.4   96.4                   558.8                    345.1                459.4
            1     53     158.33  BERM  Branyon    78.7   90.4   96.4                   558.8                    345.1                459.4
            1     54     523.52  BERM  Branyon    78.7   90.4   96.4                   558.8                    345.1                459.4
            2     55     383.44  BERM  Eckrant    71.7   86.2   94.6                    56.6                     25.2                101.9
            2     56     154.03  BERM  Crawford   71.7   86.2   94.6                   246.0                     94.6                150.0
            2     57     431.62  BERM  Crawford   71.7   86.2   94.6                   246.0                     94.6                150.0
            2     58      51.65  BERM  Tinn       71.7   86.2   94.6                   535.2                    330.0                485.0
            2     59      42.03  BERM  Tinn       71.7   86.2   94.6                   535.2                    330.0                485.0
            2     60      82.24  BERM  Lewisvil   55.5   73.8   88.0                   425.2                    280.0                381.2
            2     61      84.74  BERM  Lewisvil   55.5   73.8   88.0                   425.2                    280.0                381.2
            2     62      70.18  BERM  Patrick    55.5   73.8   88.0                   139.4                    119.0                503.4
            2     63      57.76  BERM  Patrick    55.5   73.8   88.0                   139.4                    119.0                503.4
            2     64     160.30  BERM  Crawford   64.4   81.1   92.1                   246.0                     94.6                150.0
            2     65     442.17  BERM  Crawford   64.4   81.1   92.1                   246.0                     94.6                150.0
            2     66     348.50  BERM  Eckrant    64.4   81.1   92.1                    56.6                     25.2                101.9
            2     67      73.74  BERM  Eckrant    64.4   81.1   92.1                    60.7                     21.0                109.1
            2     68     299.92  BERM  Crawford   71.7   86.2   94.6                   246.0                     94.6                150.0
            2     69     141.42  BERM  Crawford   71.7   86.2   94.6                   246.0                     94.6                150.0
            2     70     204.82  BERM  Eckrant    71.7   86.2   94.6                    56.6                     25.2                101.9
            2     71      38.47  BERM  Lewisvil   55.5   73.8   88.0                   425.2                    280.0                381.2
            2     72      50.05  BERM  Lewisvil   55.5   73.8   88.0                   425.2                    280.0                381.2
            2     73      68.04  BERM  Eckrant    71.7   86.2   94.6                    60.7                     21.0                109.1
            2     74      19.06  BERM  Austin     71.7   86.2   94.6                   185.7                    119.2                165.1
            2     75      55.15  BERM  Austin     71.7   86.2   94.6                   185.7                    119.2                165.1
            2     76     150.53  BERM  Crawford   78.7   90.4   96.4                   246.0                     94.6                150.0
            2     77     127.49  BERM  Crawford   78.7   90.4   96.4                   246.0                     94.6                150.0
            2     78      48.59  BERM  Eckrant    78.7   90.4   96.4                    56.6                     25.2                101.9
            2     79      18.45  BERM  Eckrant    78.7   90.4   96.4                    56.6                     25.2                101.9
            2     80      38.11  BERM  Lewisvil   66.2   82.4   92.8                   425.2                    280.0                381.2
            2     81      44.24  BERM  Lewisvil   66.2   82.4   92.8                   425.2                    280.0                381.2
            2     82      29.88  BERM  Whitewri   78.7   90.4   96.4                    82.4                     66.1                 99.7
            2     83      10.06  BERM  Whitewri   78.7   90.4   96.4                    82.4                     66.1                 99.7
            2     84      37.24  BERM  Austin     78.7   90.4   96.4                   185.7                    119.2                165.1
            2     85      11.91  BERM  Austin     78.7   90.4   96.4                   185.7                    119.2                165.1
            2     86      21.66  BERM  Patrick    66.2   82.4   92.8                   139.4                    119.0                503.4
            2     87      33.97  BERM  Patrick    66.2   82.4   92.8                   139.4                    119.0                503.4
            3     88     155.77  FRSE  Brackett   59.3   77.0   89.9                    67.5                     49.2                122.7
            3     89     173.73  FRSE  Brackett   59.3   77.0   89.9                    67.5                     49.2                122.7
            3     90     301.52  FRSE  Krum       51.2   70.0   85.7                   493.3                    305.2                530.2
            3     91     110.07  FRSE  Krum       51.2   70.0   85.7                   493.3                    305.2                530.2
            3     92      80.20  FRSE  Brackett   59.3   77.0   89.9                    51.1                     36.0                 88.1
            3     93     228.62  FRSE  Brackett   59.3   77.0   89.9                    51.1                     36.0                 88.1
            3     94     149.37  FRSE  Brackett   59.3   77.0   89.9                    51.1                     36.0                 88.1
            3     95     865.86  FRSE  Eckrant    59.3   77.0   89.9                    56.6                     25.2                101.9
            3     96     245.53  FRSE  Eckrant    59.3   77.0   89.9                    60.7                     21.0                109.1
            3     97     130.19  FRSE  Eckrant    59.3   77.0   89.9                    60.7                     21.0                109.1
            3     98      88.06  BERM  Brackett   71.7   86.2   94.6                    67.5                     49.2                122.7
            3     99      60.37  BERM  Brackett   71.7   86.2   94.6                    67.5                     49.2                122.7
            3    100     576.37  BERM  Eckrant    71.7   86.2   94.6                    56.6                     25.2                101.9
            3    101      64.89  BERM  Krum       65.5   81.9   92.5                   493.3                    305.2                530.2
            3    102      27.71  BERM  Krum       65.5   81.9   92.5                   493.3                    305.2                530.2
            3    103      84.31  BERM  Eckrant    71.7   86.2   94.6                    59.6                     27.0                110.2
            3    104      87.34  BERM  Eckrant    71.7   86.2   94.6                    59.6                     27.0                110.2
            3    105     166.07  BERM  Eckrant    71.7   86.2   94.6                    60.7                     21.0                109.1
            3    106      70.28  BERM  Eckrant    71.7   86.2   94.6                    60.7                     21.0                109.1
            3    107     187.09  BERM  Crawford   71.7   86.2   94.6                   246.0                     94.6                150.0
            3    108      73.77  BERM  Crawford   71.7   86.2   94.6                   246.0                     94.6                150.0
            3    109      58.88  BERM  Lewisvil   55.5   73.8   88.0                   425.2                    280.0                381.2
            3    110      49.38  BERM  Lewisvil   55.5   73.8   88.0                   425.2                    280.0                381.2
            3    111     425.94  BERM  Eckrant    64.4   81.1   92.1                    56.6                     25.2                101.9
            3    112     186.73  BERM  Eckrant    64.4   81.1   92.1                    59.6                     27.0                110.2
            3    113     169.59  BERM  Eckrant    64.4   81.1   92.1                    59.6                     27.0                110.2
            3    114     247.52  BERM  Eckrant    64.4   81.1   92.1                    60.7                     21.0                109.1
            3    115      94.72  BERM  Eckrant    64.4   81.1   92.1                    60.7                     21.0                109.1
            3    116     313.26  BERM  Crawford   64.4   81.1   92.1                   246.0                     94.6                150.0
            3    117     253.14  BERM  Eckrant    71.7   86.2   94.6                    56.6                     25.2                101.9
            3    118     130.46  BERM  Eckrant    71.7   86.2   94.6                    59.6                     27.0                110.2
            3    119      89.58  BERM  Eckrant    71.7   86.2   94.6                    59.6                     27.0                110.2
            3    120     157.73  BERM  Eckrant    71.7   86.2   94.6                    60.7                     21.0                109.1
            3    121      66.78  BERM  Eckrant    71.7   86.2   94.6                    60.7                     21.0                109.1
            3    122     315.76  BERM  Crawford   71.7   86.2   94.6                   246.0                     94.6                150.0
            4    123      28.56  RNGB  Krum       55.7   74.0   88.1                   493.3                    305.2                530.2
            4    124      89.52  RNGB  Krum       55.7   74.0   88.1                   493.3                    305.2                530.2
            4    125     234.85  RNGB  Eckrant    63.0   80.0   91.5                    56.6                     25.2                101.9
            4    126     224.82  RNGB  Eckrant    63.0   80.0   91.5                    60.7                     21.0                109.1
            4    127     121.80  RNGB  Eckrant    63.0   80.0   91.5                    60.7                     21.0                109.1
            4    128     124.21  RNGB  Eckrant    63.0   80.0   91.5                    59.6                     27.0                110.2
            4    129     119.98  RNGB  Eckrant    63.0   80.0   91.5                    59.6                     27.0                110.2
            4    130     440.46  RNGB  Crawford   63.0   80.0   91.5                   246.0                     94.6                150.0
            4    131     216.96  RNGB  Crawford   63.0   80.0   91.5                   246.0                     94.6                150.0
            4    132     447.01  FRSE  Eckrant    59.3   77.0   89.9                    56.6                     25.2                101.9
            4    133     177.34  FRSE  Eckrant    59.3   77.0   89.9                    59.6                     27.0                110.2
            4    134     223.15  FRSE  Eckrant    59.3   77.0   89.9                    59.6                     27.0                110.2
            4    135     504.54  FRSE  Crawford   59.3   77.0   89.9                   246.0                     94.6                150.0
            4    136    1123.08  FRSE  Crawford   59.3   77.0   89.9                   246.0                     94.6                150.0
            4    137     548.05  FRSE  Eckrant    59.3   77.0   89.9                    60.7                     21.0                109.1
            4    138     330.86  FRSE  Eckrant    59.3   77.0   89.9                    60.7                     21.0                109.1
            4    139     584.18  BERM  Crawford   64.4   81.1   92.1                   246.0                     94.6                150.0
            4    140     185.76  BERM  Crawford   64.4   81.1   92.1                   246.0                     94.6                150.0
            4    141     391.74  BERM  Eckrant    64.4   81.1   92.1                    56.6                     25.2                101.9
            4    142     753.93  BERM  Eckrant    64.4   81.1   92.1                    60.7                     21.0                109.1
            4    143     317.13  BERM  Eckrant    64.4   81.1   92.1                    60.7                     21.0                109.1
            4    144     357.22  BERM  Eckrant    64.4   81.1   92.1                    59.6                     27.0                110.2
            4    145     288.89  BERM  Eckrant    64.4   81.1   92.1                    59.6                     27.0                110.2
            4    146      88.43  BERM  Brackett   71.7   86.2   94.6                    51.1                     36.0                 88.1
            4    147     110.83  BERM  Brackett   71.7   86.2   94.6                    51.1                     36.0                 88.1
            4    148     635.36  BERM  Crawford   71.7   86.2   94.6                   246.0                     94.6                150.0
            4    149     224.74  BERM  Crawford   71.7   86.2   94.6                   246.0                     94.6                150.0
            4    150     513.27  BERM  Eckrant    71.7   86.2   94.6                    56.6                     25.2                101.9
            4    151     550.71  BERM  Eckrant    71.7   86.2   94.6                    60.7                     21.0                109.1
            4    152     275.73  BERM  Eckrant    71.7   86.2   94.6                    60.7                     21.0                109.1
            4    153     375.96  BERM  Eckrant    71.7   86.2   94.6                    59.6                     27.0                110.2
            4    154     260.24  BERM  Eckrant    71.7   86.2   94.6                    59.6                     27.0                110.2
            4    155     284.19  BERM  Eckrant    71.7   86.2   94.6                    56.6                     25.2                101.9
            4    156     218.59  BERM  Crawford   71.7   86.2   94.6                   246.0                     94.6                150.0
            4    157     471.75  BERM  Crawford   71.7   86.2   94.6                   246.0                     94.6                150.0
            4    158     516.67  BERM  Eckrant    71.7   86.2   94.6                    60.7                     21.0                109.1
            4    159     229.93  BERM  Eckrant    71.7   86.2   94.6                    60.7                     21.0                109.1
            4    160     250.02  BERM  Eckrant    71.7   86.2   94.6                    59.6                     27.0                110.2
            4    161     204.97  BERM  Eckrant    71.7   86.2   94.6                    59.6                     27.0                110.2
            5    162      65.60  BERM  Brackett   71.7   86.2   94.6                    51.1                     36.0                 88.1
            5    163      57.96  BERM  Brackett   71.7   86.2   94.6                    51.1                     36.0                 88.1
            5    164     342.23  BERM  Eckrant    71.7   86.2   94.6                    56.6                     25.2                101.9
            5    165     162.50  BERM  Krum       65.5   81.9   92.5                   493.3                    305.2                530.2
            5    166      61.94  BERM  Tinn       71.7   86.2   94.6                   528.1                    328.6                505.4
            5    167      62.82  BERM  Tinn       71.7   86.2   94.6                   528.1                    328.6                505.4
            5    168     122.03  BERM  Crawford   71.7   86.2   94.6                   246.0                     94.6                150.0
            5    169      46.91  BERM  Crawford   71.7   86.2   94.6                   246.0                     94.6                150.0
            5    170     117.88  BERM  Brackett   71.7   86.2   94.6                    51.1                     36.0                 88.1
            5    171      77.12  BERM  Brackett   71.7   86.2   94.6                    51.1                     36.0                 88.1
            5    172     109.85  BERM  Eckrant    71.7   86.2   94.6                    60.7                     21.0                109.1
            5    173      79.16  BERM  Eckrant    71.7   86.2   94.6                    60.7                     21.0                109.1
            5    174      70.41  BERM  Brackett   71.7   86.2   94.6                    67.5                     49.2                122.7
            5    175      37.43  BERM  Brackett   71.7   86.2   94.6                    67.5                     49.2                122.7
            5    176     427.39  RNGB  Eckrant    63.0   80.0   91.5                    56.6                     25.2                101.9
            5    177      61.83  RNGB  Brackett   63.0   80.0   91.5                    51.1                     36.0                 88.1
            5    178      95.41  RNGB  Brackett   63.0   80.0   91.5                    51.1                     36.0                 88.1
            5    179     361.40  RNGB  Krum       55.7   74.0   88.1                   493.3                    305.2                530.2
            5    180     115.46  RNGB  Krum       55.7   74.0   88.1                   493.3                    305.2                530.2
            5    181     164.70  RNGB  Tinn       63.0   80.0   91.5                   528.1                    328.6                505.4
            5    182     126.60  RNGB  Tinn       63.0   80.0   91.5                   528.1                    328.6                505.4
            5    183     181.64  RNGB  Brackett   63.0   80.0   91.5                    51.1                     36.0                 88.1
            5    184     324.91  RNGB  Brackett   63.0   80.0   91.5                    51.1                     36.0                 88.1
            5    185     110.69  RNGB  Eckrant    63.0   80.0   91.5                    60.7                     21.0                109.1
            5    186      66.47  RNGB  Eckrant    63.0   80.0   91.5                    60.7                     21.0                109.1
            5    187     329.29  RNGB  Brackett   63.0   80.0   91.5                    67.5                     49.2                122.7
            5    188     244.08  RNGB  Brackett   63.0   80.0   91.5                    67.5                     49.2                122.7
            5    189     786.53  FRSE  Eckrant    59.3   77.0   89.9                    56.6                     25.2                101.9
            5    190     227.72  FRSE  Eckrant    59.3   77.0   89.9                    56.6                     25.2                101.9
            5    191      87.42  FRSE  Brackett   59.3   77.0   89.9                    51.1                     36.0                 88.1
            5    192     294.02  FRSE  Brackett   59.3   77.0   89.9                    51.1                     36.0                 88.1
            5    193     814.09  FRSE  Krum       51.2   70.0   85.7                   493.3                    305.2                530.2
            5    194     375.87  FRSE  Eckrant    59.3   77.0   89.9                    60.7                     21.0                109.1
            5    195     305.68  FRSE  Eckrant    59.3   77.0   89.9                    60.7                     21.0                109.1
            5    196     742.57  FRSE  Brackett   59.3   77.0   89.9                    51.1                     36.0                 88.1
            5    197     261.59  FRSE  Brackett   59.3   77.0   89.9                    51.1                     36.0                 88.1
            5    198     672.53  FRSE  Brackett   59.3   77.0   89.9                    67.5                     49.2                122.7
            5    199     534.83  FRSE  Brackett   59.3   77.0   89.9                    67.5                     49.2                122.7

         HRU Input Summary Table 2:
          Sub   HRU   Area(ha)         SoilName Hydgrp MaxRtDpth(mm) Albedo USLE_K USLE_P USLE_LS ProfileAWC(mm) IniSoilH2O(mm)
            1      1     431.21 Houston Black      D          2000.00   0.17   0.24   1.00    0.72    322.800        116.214
            1      2     159.02 Houston Black      D          2000.00   0.17   0.24   1.00    0.18    322.800        116.214
            1      3     489.20 Austin             D           740.00   0.16   0.20   1.00    0.67    119.200         42.914
            1      4     190.07 Austin             D           740.00   0.16   0.20   1.00    0.20    123.300         44.390
            1      5     330.89 Austin             D           740.00   0.16   0.20   1.00    0.56    123.300         44.390
            1      6     145.17 Houston Black      D          2000.00   0.10   0.24   1.00    0.56    295.500        106.385
            1      7     163.03 Houston Black      D          2000.00   0.10   0.24   1.00    0.18    295.500        106.385
            1      8     123.53 Lewisville         B          1750.00   0.16   0.20   1.00    0.54    280.000        100.805
            1      9     227.79 Lewisville         B          1750.00   0.16   0.20   1.00    0.17    280.000        100.805
            1     10     170.64 Houston Black      D          2000.00   0.10   0.32   1.00    0.17    314.800        113.334
            1     11     113.37 Houston Black      D          2000.00   0.10   0.32   1.00    0.54    314.800        113.334
            1     12     541.13 Lewisville         C          1540.00   0.16   0.20   1.00    0.15    250.700         90.257
            1     13     161.32 Lewisville         C          1540.00   0.16   0.20   1.00    0.56    250.700         90.257
            1     14     464.19 Branyon            D          2000.00   0.16   0.32   1.00    0.14    345.100        124.242
            1     15     545.00 Houston Black      D          2000.00   0.17   0.24   1.00    0.72    322.800        116.214
            1     16     204.97 Houston Black      D          2000.00   0.17   0.24   1.00    0.18    322.800        116.214
            1     17     504.99 Austin             D           740.00   0.16   0.20   1.00    0.65    119.200         42.914
            1     18     378.04 Austin             D           740.00   0.16   0.20   1.00    0.56    123.300         44.390
            1     19     242.56 Austin             D           740.00   0.16   0.20   1.00    0.20    123.300         44.390
            1     20     445.65 Eckrant            D           280.00   0.10   0.15   1.00    0.77     25.200          9.072
            1     21     179.11 Houston Black      D          2000.00   0.10   0.24   1.00    0.58    295.500        106.385
            1     22     190.54 Houston Black      D          2000.00   0.10   0.24   1.00    0.18    295.500        106.385
            1     23     154.29 Lewisville         B          1750.00   0.16   0.20   1.00    0.54    280.000        100.805
            1     24     349.08 Lewisville         B          1750.00   0.16   0.20   1.00    0.16    280.000        100.805
            1     25     172.56 Houston Black      D          2000.00   0.10   0.32   1.00    0.58    314.800        113.334
            1     26     188.19 Houston Black      D          2000.00   0.10   0.32   1.00    0.17    314.800        113.334
            1     27     800.74 Lewisville         C          1540.00   0.16   0.20   1.00    0.14    250.700         90.257
            1     28     447.75 Branyon            D          2000.00   0.16   0.32   1.00    0.14    345.100        124.242
            1     29     363.79 Austin             D           740.00   0.16   0.20   1.00    0.56    123.300         44.390
            1     30     235.30 Austin             D           740.00   0.16   0.20   1.00    0.18    123.300         44.390
            1     31     480.16 Houston Black      D          2000.00   0.17   0.24   1.00    0.75    322.800        116.214
            1     32     210.80 Houston Black      D          2000.00   0.17   0.24   1.00    0.17    322.800        116.214
            1     33     559.78 Eckrant            D           280.00   0.10   0.15   1.00    0.75     25.200          9.072
            1     34     234.16 Lewisville         B          1750.00   0.16   0.20   1.00    0.58    280.000        100.805
            1     35     361.62 Lewisville         B          1750.00   0.16   0.20   1.00    0.16    280.000        100.805
            1     36     265.91 Tinn               D          2000.00   0.16   0.24   1.00    0.75    330.000        118.806
            1     37     195.18 Tinn               D          2000.00   0.16   0.24   1.00    0.15    330.000        118.806
            1     38     760.57 Lewisville         C          1540.00   0.16   0.20   1.00    0.15    250.700         90.257
            1     39     265.94 Lewisville         C          1540.00   0.16   0.20   1.00    0.56    250.700         90.257
            1     40     467.91 Branyon            D          2000.00   0.16   0.32   1.00    0.14    345.100        124.242
            1     41     193.40 Loire              B          2000.00   0.23   0.24   1.00    0.15    354.000        127.447
            1     42     252.32 Loire              B          2000.00   0.23   0.24   1.00    0.77    354.000        127.447
            1     43     167.74 Austin             D           740.00   0.16   0.20   1.00    0.18    123.300         44.390
            1     44     195.06 Austin             D           740.00   0.16   0.20   1.00    0.56    123.300         44.390
            1     45     161.02 Austin             D           740.00   0.16   0.20   1.00    0.65    119.200         42.914
            1     46      69.32 Austin             D           740.00   0.16   0.20   1.00    0.18    119.200         42.914
            1     47     185.97 Lewisville         B          1750.00   0.16   0.20   1.00    0.16    280.000        100.805
            1     48      73.26 Lewisville         B          1750.00   0.16   0.20   1.00    0.50    280.000        100.805
            1     49     162.22 Houston Black      D          2000.00   0.17   0.24   1.00    0.65    322.800        116.214
            1     50     113.12 Houston Black      D          2000.00   0.17   0.24   1.00    0.17    322.800        116.214
            1     51     713.92 Lewisville         C          1540.00   0.16   0.20   1.00    0.15    250.700         90.257
            1     52      60.96 Branyon            D          2000.00   0.16   0.20   1.00    0.54    345.100        124.242
            1     53     158.33 Branyon            D          2000.00   0.16   0.20   1.00    0.15    345.100        124.242
            1     54     523.52 Branyon            D          2000.00   0.16   0.32   1.00    0.15    345.100        124.242
            2     55     383.44 Eckrant            D           280.00   0.10   0.15   1.00    0.77     25.200          8.616
            2     56     154.03 Crawford           D           860.00   0.10   0.17   1.00    0.18     94.600         32.345
            2     57     431.62 Crawford           D           860.00   0.10   0.17   1.00    0.67     94.600         32.345
            2     58      51.65 Tinn               D          2000.00   0.16   0.24   1.00    0.75    330.000        112.831
            2     59      42.03 Tinn               D          2000.00   0.16   0.24   1.00    0.14    330.000        112.831
            2     60      82.24 Lewisville         B          1750.00   0.16   0.20   1.00    0.65    280.000         95.735
            2     61      84.74 Lewisville         B          1750.00   0.16   0.20   1.00    0.16    280.000         95.735
            2     62      70.18 Patrick            B          1520.00   0.16   0.17   1.00    0.17    119.000         40.687
            2     63      57.76 Patrick            B          1520.00   0.16   0.17   1.00    0.56    119.000         40.687
            2     64     160.30 Crawford           D           860.00   0.10   0.17   1.00    0.20     94.600         32.345
            2     65     442.17 Crawford           D           860.00   0.10   0.17   1.00    0.65     94.600         32.345
            2     66     348.50 Eckrant            D           280.00   0.10   0.15   1.00    0.77     25.200          8.616
            2     67      73.74 Eckrant            D           300.00   0.10   0.15   1.00    0.90     21.000          7.180
            2     68     299.92 Crawford           D           860.00   0.10   0.17   1.00    0.63     94.600         32.345
            2     69     141.42 Crawford           D           860.00   0.10   0.17   1.00    0.20     94.600         32.345
            2     70     204.82 Eckrant            D           280.00   0.10   0.15   1.00    0.72     25.200          8.616
            2     71      38.47 Lewisville         B          1750.00   0.16   0.20   1.00    0.56    280.000         95.735
            2     72      50.05 Lewisville         B          1750.00   0.16   0.20   1.00    0.18    280.000         95.735
            2     73      68.04 Eckrant            D           300.00   0.10   0.15   1.00    0.93     21.000          7.180
            2     74      19.06 Austin             D           740.00   0.16   0.20   1.00    0.20    119.200         40.756
            2     75      55.15 Austin             D           740.00   0.16   0.20   1.00    0.60    119.200         40.756
            2     76     150.53 Crawford           D           860.00   0.10   0.17   1.00    0.60     94.600         32.345
            2     77     127.49 Crawford           D           860.00   0.10   0.17   1.00    0.18     94.600         32.345
            2     78      48.59 Eckrant            D           280.00   0.10   0.15   1.00    0.70     25.200          8.616
            2     79      18.45 Eckrant            D           280.00   0.10   0.15   1.00    0.18     25.200          8.616
            2     80      38.11 Lewisville         B          1750.00   0.16   0.20   1.00    0.56    280.000         95.735
            2     81      44.24 Lewisville         B          1750.00   0.16   0.20   1.00    0.17    280.000         95.735
            2     82      29.88 Whitewright        D           380.00   0.30   0.24   1.00    0.70     66.100         22.600
            2     83      10.06 Whitewright        D           380.00   0.30   0.24   1.00    0.21     66.100         22.600
            2     84      37.24 Austin             D           740.00   0.16   0.20   1.00    0.63    119.200         40.756
            2     85      11.91 Austin             D           740.00   0.16   0.20   1.00    0.18    119.200         40.756
            2     86      21.66 Patrick            B          1520.00   0.16   0.17   1.00    0.56    119.000         40.687
            2     87      33.97 Patrick            B          1520.00   0.16   0.17   1.00    0.17    119.000         40.687
            3     88     155.77 Brackett           D           410.00   0.30   0.24   1.00    1.76     49.200         16.822
            3     89     173.73 Brackett           D           410.00   0.30   0.24   1.00    0.91     49.200         16.822
            3     90     301.52 Krum               C          2000.00   0.10   0.15   1.00    0.72    305.200        104.351
            3     91     110.07 Krum               C          2000.00   0.10   0.15   1.00    0.18    305.200        104.351
            3     92      80.20 Brackett           D           300.00   0.23   0.32   1.00    0.93     36.000         12.309
            3     93     228.62 Brackett           D           300.00   0.23   0.32   1.00    1.98     36.000         12.309
            3     94     149.37 Brackett           D           300.00   0.23   0.32   1.00    2.22     36.000         12.309
            3     95     865.86 Eckrant            D           280.00   0.10   0.15   1.00    0.85     25.200          8.616
            3     96     245.53 Eckrant            D           300.00   0.10   0.15   1.00    0.82     21.000          7.180
            3     97     130.19 Eckrant            D           300.00   0.10   0.15   1.00    2.73     21.000          7.180
            3     98      88.06 Brackett           D           410.00   0.30   0.24   1.00    1.84     49.200         16.822
            3     99      60.37 Brackett           D           410.00   0.30   0.24   1.00    0.96     49.200         16.822
            3    100     576.37 Eckrant            D           280.00   0.10   0.15   1.00    0.85     25.200          8.616
            3    101      64.89 Krum               C          2000.00   0.10   0.15   1.00    0.75    305.200        104.351
            3    102      27.71 Krum               C          2000.00   0.10   0.15   1.00    0.16    305.200        104.351
            3    103      84.31 Eckrant            D           300.00   0.16   0.15   1.00    0.84     27.000          9.232
            3    104      87.34 Eckrant            D           300.00   0.16   0.15   1.00    1.69     27.000          9.232
            3    105     166.07 Eckrant            D           300.00   0.10   0.15   1.00    0.93     21.000          7.180
            3    106      70.28 Eckrant            D           300.00   0.10   0.15   1.00    1.63     21.000          7.180
            3    107     187.09 Crawford           D           860.00   0.10   0.17   1.00    0.72     94.600         32.345
            3    108      73.77 Crawford           D           860.00   0.10   0.17   1.00    0.18     94.600         32.345
            3    109      58.88 Lewisville         B          1750.00   0.16   0.20   1.00    0.15    280.000         95.735
            3    110      49.38 Lewisville         B          1750.00   0.16   0.20   1.00    0.67    280.000         95.735
            3    111     425.94 Eckrant            D           280.00   0.10   0.15   1.00    0.85     25.200          8.616
            3    112     186.73 Eckrant            D           300.00   0.16   0.15   1.00    0.91     27.000          9.232
            3    113     169.59 Eckrant            D           300.00   0.16   0.15   1.00    2.76     27.000          9.232
            3    114     247.52 Eckrant            D           300.00   0.10   0.15   1.00    0.76     21.000          7.180
            3    115      94.72 Eckrant            D           300.00   0.10   0.15   1.00    2.62     21.000          7.180
            3    116     313.26 Crawford           D           860.00   0.10   0.17   1.00    0.72     94.600         32.345
            3    117     253.14 Eckrant            D           280.00   0.10   0.15   1.00    0.80     25.200          8.616
            3    118     130.46 Eckrant            D           300.00   0.16   0.15   1.00    0.87     27.000          9.232
            3    119      89.58 Eckrant            D           300.00   0.16   0.15   1.00    2.58     27.000          9.232
            3    120     157.73 Eckrant            D           300.00   0.10   0.15   1.00    0.76     21.000          7.180
            3    121      66.78 Eckrant            D           300.00   0.10   0.15   1.00    2.48     21.000          7.180
            3    122     315.76 Crawford           D           860.00   0.10   0.17   1.00    0.72     94.600         32.345
            4    123      28.56 Krum               C          2000.00   0.10   0.15   1.00    0.18    305.200        112.619
            4    124      89.52 Krum               C          2000.00   0.10   0.15   1.00    0.65    305.200        112.619
            4    125     234.85 Eckrant            D           280.00   0.10   0.15   1.00    0.72     25.200          9.299
            4    126     224.82 Eckrant            D           300.00   0.10   0.15   1.00    0.90     21.000          7.749
            4    127     121.80 Eckrant            D           300.00   0.10   0.15   1.00    2.09     21.000          7.749
            4    128     124.21 Eckrant            D           300.00   0.16   0.15   1.00    0.78     27.000          9.963
            4    129     119.98 Eckrant            D           300.00   0.16   0.15   1.00    2.05     27.000          9.963
            4    130     440.46 Crawford           D           860.00   0.10   0.17   1.00    0.67     94.600         34.907
            4    131     216.96 Crawford           D           860.00   0.10   0.17   1.00    0.18     94.600         34.907
            4    132     447.01 Eckrant            D           280.00   0.10   0.15   1.00    0.77     25.200          9.299
            4    133     177.34 Eckrant            D           300.00   0.16   0.15   1.00    0.84     27.000          9.963
            4    134     223.15 Eckrant            D           300.00   0.16   0.15   1.00    2.17     27.000          9.963
            4    135     504.54 Crawford           D           860.00   0.10   0.17   1.00    0.18     94.600         34.907
            4    136    1123.08 Crawford           D           860.00   0.10   0.17   1.00    0.70     94.600         34.907
            4    137     548.05 Eckrant            D           300.00   0.10   0.15   1.00    0.76     21.000          7.749
            4    138     330.86 Eckrant            D           300.00   0.10   0.15   1.00    1.63     21.000          7.749
            4    139     584.18 Crawford           D           860.00   0.10   0.17   1.00    0.70     94.600         34.907
            4    140     185.76 Crawford           D           860.00   0.10   0.17   1.00    0.20     94.600         34.907
            4    141     391.74 Eckrant            D           280.00   0.10   0.15   1.00    0.80     25.200          9.299
            4    142     753.93 Eckrant            D           300.00   0.10   0.15   1.00    0.78     21.000          7.749
            4    143     317.13 Eckrant            D           300.00   0.10   0.15   1.00    2.62     21.000          7.749
            4    144     357.22 Eckrant            D           300.00   0.16   0.15   1.00    1.80     27.000          9.963
            4    145     288.89 Eckrant            D           300.00   0.16   0.15   1.00    0.91     27.000          9.963
            4    146      88.43 Brackett           D           300.00   0.23   0.32   1.00    1.69     36.000         13.284
            4    147     110.83 Brackett           D           300.00   0.23   0.32   1.00    0.89     36.000         13.284
            4    148     635.36 Crawford           D           860.00   0.10   0.17   1.00    0.72     94.600         34.907
            4    149     224.74 Crawford           D           860.00   0.10   0.17   1.00    0.18     94.600         34.907
            4    150     513.27 Eckrant            D           280.00   0.10   0.15   1.00    0.75     25.200          9.299
            4    151     550.71 Eckrant            D           300.00   0.10   0.15   1.00    0.93     21.000          7.749
            4    152     275.73 Eckrant            D           300.00   0.10   0.15   1.00    1.63     21.000          7.749
            4    153     375.96 Eckrant            D           300.00   0.16   0.15   1.00    2.17     27.000          9.963
            4    154     260.24 Eckrant            D           300.00   0.16   0.15   1.00    0.87     27.000          9.963
            4    155     284.19 Eckrant            D           280.00   0.10   0.15   1.00    0.77     25.200          9.299
            4    156     218.59 Crawford           D           860.00   0.10   0.17   1.00    0.20     94.600         34.907
            4    157     471.75 Crawford           D           860.00   0.10   0.17   1.00    0.70     94.600         34.907
            4    158     516.67 Eckrant            D           300.00   0.10   0.15   1.00    0.78     21.000          7.749
            4    159     229.93 Eckrant            D           300.00   0.10   0.15   1.00    2.65     21.000          7.749
            4    160     250.02 Eckrant            D           300.00   0.16   0.15   1.00    0.89     27.000          9.963
            4    161     204.97 Eckrant            D           300.00   0.16   0.15   1.00    1.63     27.000          9.963
            5    162      65.60 Brackett           D           300.00   0.23   0.32   1.00    2.34     36.000         14.924
            5    163      57.96 Brackett           D           300.00   0.23   0.32   1.00    0.87     36.000         14.924
            5    164     342.23 Eckrant            D           280.00   0.10   0.15   1.00    0.77     25.200         10.447
            5    165     162.50 Krum               C          2000.00   0.10   0.15   1.00    0.80    305.200        126.526
            5    166      61.94 Tinn               D          2000.00   0.16   0.24   1.00    0.77    328.600        136.227
            5    167      62.82 Tinn               D          2000.00   0.16   0.24   1.00    0.16    328.600        136.227
            5    168     122.03 Crawford           D           860.00   0.10   0.17   1.00    0.70     94.600         39.218
            5    169      46.91 Crawford           D           860.00   0.10   0.17   1.00    0.18     94.600         39.218
            5    170     117.88 Brackett           D           300.00   0.23   0.32   1.00    2.02     36.000         14.924
            5    171      77.12 Brackett           D           300.00   0.23   0.32   1.00    0.93     36.000         14.924
            5    172     109.85 Eckrant            D           300.00   0.10   0.15   1.00    0.93     21.000          8.706
            5    173      79.16 Eckrant            D           300.00   0.10   0.15   1.00    2.00     21.000          8.706
            5    174      70.41 Brackett           D           410.00   0.30   0.24   1.00    0.78     49.200         20.397
            5    175      37.43 Brackett           D           410.00   0.30   0.24   1.00    2.76     49.200         20.397
            5    176     427.39 Eckrant            D           280.00   0.10   0.15   1.00    0.82     25.200         10.447
            5    177      61.83 Brackett           D           300.00   0.23   0.32   1.00    0.89     36.000         14.924
            5    178      95.41 Brackett           D           300.00   0.23   0.32   1.00    2.36     36.000         14.924
            5    179     361.40 Krum               C          2000.00   0.10   0.15   1.00    0.72    305.200        126.526
            5    180     115.46 Krum               C          2000.00   0.10   0.15   1.00    0.18    305.200        126.526
            5    181     164.70 Tinn               D          2000.00   0.16   0.24   1.00    0.16    328.600        136.227
            5    182     126.60 Tinn               D          2000.00   0.16   0.24   1.00    0.58    328.600        136.227
            5    183     181.64 Brackett           D           300.00   0.23   0.32   1.00    0.93     36.000         14.924
            5    184     324.91 Brackett           D           300.00   0.23   0.32   1.00    2.09     36.000         14.924
            5    185     110.69 Eckrant            D           300.00   0.10   0.15   1.00    0.87     21.000          8.706
            5    186      66.47 Eckrant            D           300.00   0.10   0.15   1.00    2.51     21.000          8.706
            5    187     329.29 Brackett           D           410.00   0.30   0.24   1.00    0.91     49.200         20.397
            5    188     244.08 Brackett           D           410.00   0.30   0.24   1.00    2.69     49.200         20.397
            5    189     786.53 Eckrant            D           280.00   0.10   0.15   1.00    0.87     25.200         10.447
            5    190     227.72 Eckrant            D           280.00   0.10   0.15   1.00    1.69     25.200         10.447
            5    191      87.42 Brackett           D           300.00   0.23   0.32   1.00    0.93     36.000         14.924
            5    192     294.02 Brackett           D           300.00   0.23   0.32   1.00    3.11     36.000         14.924
            5    193     814.09 Krum               C          2000.00   0.10   0.15   1.00    0.80    305.200        126.526
            5    194     375.87 Eckrant            D           300.00   0.10   0.15   1.00    0.84     21.000          8.706
            5    195     305.68 Eckrant            D           300.00   0.10   0.15   1.00    1.76     21.000          8.706
            5    196     742.57 Brackett           D           300.00   0.23   0.32   1.00    2.39     36.000         14.924
            5    197     261.59 Brackett           D           300.00   0.23   0.32   1.00    0.91     36.000         14.924
            5    198     672.53 Brackett           D           410.00   0.30   0.24   1.00    0.89     49.200         20.397
            5    199     534.83 Brackett           D           410.00   0.30   0.24   1.00    2.69     49.200         20.397

         HRU Input Summary Table 3:
          Sub   HRU   Area(ha) Urban Irrig DrainTiles Pothole Pstcide Biomix Septic
            1      1     431.21   x                                      0.20 x
            1      2     159.02   x                                      0.20 x
            1      3     489.20   x                                      0.20 x
            1      4     190.07   x                                      0.20 x
            1      5     330.89   x                                      0.20 x
            1      6     145.17   x                                      0.20 x
            1      7     163.03   x                                      0.20 x
            1      8     123.53   x                                      0.20 x
            1      9     227.79   x                                      0.20 x
            1     10     170.64   x                                      0.20 x
            1     11     113.37   x                                      0.20 x
            1     12     541.13   x                                      0.20 x
            1     13     161.32   x                                      0.20 x
            1     14     464.19   x                                      0.20 x
            1     15     545.00   x                                      0.20 x
            1     16     204.97   x                                      0.20 x
            1     17     504.99   x                                      0.20 x
            1     18     378.04   x                                      0.20 x
            1     19     242.56   x                                      0.20 x
            1     20     445.65   x                                      0.20 x
            1     21     179.11   x                                      0.20 x
            1     22     190.54   x                                      0.20 x
            1     23     154.29   x                                      0.20 x
            1     24     349.08   x                                      0.20 x
            1     25     172.56   x                                      0.20 x
            1     26     188.19   x                                      0.20 x
            1     27     800.74   x                                      0.20 x
            1     28     447.75   x                                      0.20 x
            1     29     363.79   x                                      0.20 x
            1     30     235.30   x                                      0.20 x
            1     31     480.16   x                                      0.20 x
            1     32     210.80   x                                      0.20 x
            1     33     559.78   x                                      0.20 x
            1     34     234.16   x                                      0.20 x
            1     35     361.62   x                                      0.20 x
            1     36     265.91   x                                      0.20 x
            1     37     195.18   x                                      0.20 x
            1     38     760.57   x                                      0.20 x
            1     39     265.94   x                                      0.20 x
            1     40     467.91   x                                      0.20 x
            1     41     193.40   x                                      0.20 x
            1     42     252.32   x                                      0.20 x
            1     43     167.74   x                                      0.20 x
            1     44     195.06   x                                      0.20 x
            1     45     161.02   x                                      0.20 x
            1     46      69.32   x                                      0.20 x
            1     47     185.97   x                                      0.20 x
            1     48      73.26   x                                      0.20 x
            1     49     162.22   x                                      0.20 x
            1     50     113.12   x                                      0.20 x
            1     51     713.92   x                                      0.20 x
            1     52      60.96   x                                      0.20 x
            1     53     158.33   x                                      0.20 x
            1     54     523.52   x                                      0.20 x
            2     55     383.44   x                                      0.20 x
            2     56     154.03   x                                      0.20 x
            2     57     431.62   x                                      0.20 x
            2     58      51.65   x                                      0.20 x
            2     59      42.03   x                                      0.20 x
            2     60      82.24   x                                      0.20 x
            2     61      84.74   x                                      0.20 x
            2     62      70.18   x                                      0.20 x
            2     63      57.76   x                                      0.20 x
            2     64     160.30   x                                      0.20 x
            2     65     442.17   x                                      0.20 x
            2     66     348.50   x                                      0.20 x
            2     67      73.74   x                                      0.20 x
            2     68     299.92   x                                      0.20 x
            2     69     141.42   x                                      0.20 x
            2     70     204.82   x                                      0.20 x
            2     71      38.47   x                                      0.20 x
            2     72      50.05   x                                      0.20 x
            2     73      68.04   x                                      0.20 x
            2     74      19.06   x                                      0.20 x
            2     75      55.15   x                                      0.20 x
            2     76     150.53   x                                      0.20 x
            2     77     127.49   x                                      0.20 x
            2     78      48.59   x                                      0.20 x
            2     79      18.45   x                                      0.20 x
            2     80      38.11   x                                      0.20 x
            2     81      44.24   x                                      0.20 x
            2     82      29.88   x                                      0.20 x
[...]
            1     38     760.57        31.000         0.048   1000.000   0.020      750.000  0.050    0.000     0.000
            1     39     265.94        31.000         0.048   1000.000   0.020      750.000  0.050    0.000     0.000
            1     40     467.91        31.000         0.048   1000.000   0.020      750.000  0.050    0.000     0.000
            1     41     193.40        31.000         0.048   1000.000   0.020      750.000  0.050    0.000     0.000
            1     42     252.32        31.000         0.048   1000.000   0.020      750.000  0.050    0.000     0.000
            1     43     167.74        31.000         0.048   1000.000   0.020      750.000  0.050    0.000     0.000
            1     44     195.06        31.000         0.048   1000.000   0.020      750.000  0.050    0.000     0.000
            1     45     161.02        31.000         0.048   1000.000   0.020      750.000  0.050    0.000     0.000
            1     46      69.32        31.000         0.048   1000.000   0.020      750.000  0.050    0.000     0.000
            1     47     185.97        31.000         0.048   1000.000   0.020      750.000  0.050    0.000     0.000
            1     48      73.26        31.000         0.048   1000.000   0.020      750.000  0.050    0.000     0.000
            1     49     162.22        31.000         0.048   1000.000   0.020      750.000  0.050    0.000     0.000
            1     50     113.12        31.000         0.048   1000.000   0.020      750.000  0.050    0.000     0.000
            1     51     713.92        31.000         0.048   1000.000   0.020      750.000  0.050    0.000     0.000
            1     52      60.96        31.000         0.048   1000.000   0.020      750.000  0.050    0.000     0.000
            1     53     158.33        31.000         0.048   1000.000   0.020      750.000  0.050    0.000     0.000
            1     54     523.52        31.000         0.048   1000.000   0.020      750.000  0.050    0.000     0.000
            2     55     383.44        31.000         0.048   1000.000   0.020      750.000  0.050    0.000     0.000
            2     56     154.03        31.000         0.048   1000.000   0.020      750.000  0.050    0.000     0.000
            2     57     431.62        31.000         0.048   1000.000   0.020      750.000  0.050    0.000     0.000
            2     58      51.65        31.000         0.048   1000.000   0.020      750.000  0.050    0.000     0.000
            2     59      42.03        31.000         0.048   1000.000   0.020      750.000  0.050    0.000     0.000
            2     60      82.24        31.000         0.048   1000.000   0.020      750.000  0.050    0.000     0.000
            2     61      84.74        31.000         0.048   1000.000   0.020      750.000  0.050    0.000     0.000
            2     62      70.18        31.000         0.048   1000.000   0.020      750.000  0.050    0.000     0.000
            2     63      57.76        31.000         0.048   1000.000   0.020      750.000  0.050    0.000     0.000
            2     64     160.30        31.000         0.048   1000.000   0.020      750.000  0.050    0.000     0.000
            2     65     442.17        31.000         0.048   1000.000   0.020      750.000  0.050    0.000     0.000
            2     66     348.50        31.000         0.048   1000.000   0.020      750.000  0.050    0.000     0.000
            2     67      73.74        31.000         0.048   1000.000   0.020      750.000  0.050    0.000     0.000
            2     68     299.92        31.000         0.048   1000.000   0.020      750.000  0.050    0.000     0.000
            2     69     141.42        31.000         0.048   1000.000   0.020      750.000  0.050    0.000     0.000
            2     70     204.82        31.000         0.048   1000.000   0.020      750.000  0.050    0.000     0.000
            2     71      38.47        31.000         0.048   1000.000   0.020      750.000  0.050    0.000     0.000
            2     72      50.05        31.000         0.048   1000.000   0.020      750.000  0.050    0.000     0.000
            2     73      68.04        31.000         0.048   1000.000   0.020      750.000  0.050    0.000     0.000
            2     74      19.06        31.000         0.048   1000.000   0.020      750.000  0.050    0.000     0.000
            2     75      55.15        31.000         0.048   1000.000   0.020      750.000  0.050    0.000     0.000
            2     76     150.53        31.000         0.048   1000.000   0.020      750.000  0.050    0.000     0.000
            2     77     127.49        31.000         0.048   1000.000   0.020      750.000  0.050    0.000     0.000
            2     78      48.59        31.000         0.048   1000.000   0.020      750.000  0.050    0.000     0.000
            2     79      18.45        31.000         0.048   1000.000   0.020      750.000  0.050    0.000     0.000
            2     80      38.11        31.000         0.048   1000.000   0.020      750.000  0.050    0.000     0.000
            2     81      44.24        31.000         0.048   1000.000   0.020      750.000  0.050    0.000     0.000
            2     82      29.88        31.000         0.048   1000.000   0.020      750.000  0.050    0.000     0.000
            2     83      10.06        31.000         0.048   1000.000   0.020      750.000  0.050    0.000     0.000
            2     84      37.24        31.000         0.048   1000.000   0.020      750.000  0.050    0.000     0.000
            2     85      11.91        31.000         0.048   1000.000   0.020      750.000  0.050    0.000     0.000
            2     86      21.66        31.000         0.048   1000.000   0.020      750.000  0.050    0.000     0.000
            2     87      33.97        31.000         0.048   1000.000   0.020      750.000  0.050    0.000     0.000
            3     88     155.77        31.000         0.048   1000.000   0.020      750.000  0.050    0.000     0.000
            3     89     173.73        31.000         0.048   1000.000   0.020      750.000  0.050    0.000     0.000
            3     90     301.52        31.000         0.048   1000.000   0.020      750.000  0.050    0.000     0.000
            3     91     110.07        31.000         0.048   1000.000   0.020      750.000  0.050    0.000     0.000
            3     92      80.20        31.000         0.048   1000.000   0.020      750.000  0.050    0.000     0.000
            3     93     228.62        31.000         0.048   1000.000   0.020      750.000  0.050    0.000     0.000
            3     94     149.37        31.000         0.048   1000.000   0.020      750.000  0.050    0.000     0.000
            3     95     865.86        31.000         0.048   1000.000   0.020      750.000  0.050    0.000     0.000
            3     96     245.53        31.000         0.048   1000.000   0.020      750.000  0.050    0.000     0.000
            3     97     130.19        31.000         0.048   1000.000   0.020      750.000  0.050    0.000     0.000
            3     98      88.06        31.000         0.048   1000.000   0.020      750.000  0.050    0.000     0.000
            3     99      60.37        31.000         0.048   1000.000   0.020      750.000  0.050    0.000     0.000
            3    100     576.37        31.000         0.048   1000.000   0.020      750.000  0.050    0.000     0.000
            3    101      64.89        31.000         0.048   1000.000   0.020      750.000  0.050    0.000     0.000
            3    102      27.71        31.000         0.048   1000.000   0.020      750.000  0.050    0.000     0.000
            3    103      84.31        31.000         0.048   1000.000   0.020      750.000  0.050    0.000     0.000
            3    104      87.34        31.000         0.048   1000.000   0.020      750.000  0.050    0.000     0.000
            3    105     166.07        31.000         0.048   1000.000   0.020      750.000  0.050    0.000     0.000
            3    106      70.28        31.000         0.048   1000.000   0.020      750.000  0.050    0.000     0.000
            3    107     187.09        31.000         0.048   1000.000   0.020      750.000  0.050    0.000     0.000
            3    108      73.77        31.000         0.048   1000.000   0.020      750.000  0.050    0.000     0.000
            3    109      58.88        31.000         0.048   1000.000   0.020      750.000  0.050    0.000     0.000
            3    110      49.38        31.000         0.048   1000.000   0.020      750.000  0.050    0.000     0.000
            3    111     425.94        31.000         0.048   1000.000   0.020      750.000  0.050    0.000     0.000
            3    112     186.73        31.000         0.048   1000.000   0.020      750.000  0.050    0.000     0.000
            3    113     169.59        31.000         0.048   1000.000   0.020      750.000  0.050    0.000     0.000
            3    114     247.52        31.000         0.048   1000.000   0.020      750.000  0.050    0.000     0.000
            3    115      94.72        31.000         0.048   1000.000   0.020      750.000  0.050    0.000     0.000
            3    116     313.26        31.000         0.048   1000.000   0.020      750.000  0.050    0.000     0.000
            3    117     253.14        31.000         0.048   1000.000   0.020      750.000  0.050    0.000     0.000
            3    118     130.46        31.000         0.048   1000.000   0.020      750.000  0.050    0.000     0.000
            3    119      89.58        31.000         0.048   1000.000   0.020      750.000  0.050    0.000     0.000
            3    120     157.73        31.000         0.048   1000.000   0.020      750.000  0.050    0.000     0.000
            3    121      66.78        31.000         0.048   1000.000   0.020      750.000  0.050    0.000     0.000
            3    122     315.76        31.000         0.048   1000.000   0.020      750.000  0.050    0.000     0.000
            4    123      28.56        31.000         0.048   1000.000   0.020      750.000  0.050    0.000     0.000
            4    124      89.52        31.000         0.048   1000.000   0.020      750.000  0.050    0.000     0.000
            4    125     234.85        31.000         0.048   1000.000   0.020      750.000  0.050    0.000     0.000
            4    126     224.82        31.000         0.048   1000.000   0.020      750.000  0.050    0.000     0.000
            4    127     121.80        31.000         0.048   1000.000   0.020      750.000  0.050    0.000     0.000
            4    128     124.21        31.000         0.048   1000.000   0.020      750.000  0.050    0.000     0.000
            4    129     119.98        31.000         0.048   1000.000   0.020      750.000  0.050    0.000     0.000
            4    130     440.46        31.000         0.048   1000.000   0.020      750.000  0.050    0.000     0.000
            4    131     216.96        31.000         0.048   1000.000   0.020      750.000  0.050    0.000     0.000
            4    132     447.01        31.000         0.048   1000.000   0.020      750.000  0.050    0.000     0.000
            4    133     177.34        31.000         0.048   1000.000   0.020      750.000  0.050    0.000     0.000
            4    134     223.15        31.000         0.048   1000.000   0.020      750.000  0.050    0.000     0.000
            4    135     504.54        31.000         0.048   1000.000   0.020      750.000  0.050    0.000     0.000
            4    136    1123.08        31.000         0.048   1000.000   0.020      750.000  0.050    0.000     0.000
            4    137     548.05        31.000         0.048   1000.000   0.020      750.000  0.050    0.000     0.000
            4    138     330.86        31.000         0.048   1000.000   0.020      750.000  0.050    0.000     0.000
            4    139     584.18        31.000         0.048   1000.000   0.020      750.000  0.050    0.000     0.000
            4    140     185.76        31.000         0.048   1000.000   0.020      750.000  0.050    0.000     0.000
            4    141     391.74        31.000         0.048   1000.000   0.020      750.000  0.050    0.000     0.000
            4    142     753.93        31.000         0.048   1000.000   0.020      750.000  0.050    0.000     0.000
            4    143     317.13        31.000         0.048   1000.000   0.020      750.000  0.050    0.000     0.000
            4    144     357.22        31.000         0.048   1000.000   0.020      750.000  0.050    0.000     0.000
            4    145     288.89        31.000         0.048   1000.000   0.020      750.000  0.050    0.000     0.000
            4    146      88.43        31.000         0.048   1000.000   0.020      750.000  0.050    0.000     0.000
            4    147     110.83        31.000         0.048   1000.000   0.020      750.000  0.050    0.000     0.000
            4    148     635.36        31.000         0.048   1000.000   0.020      750.000  0.050    0.000     0.000
            4    149     224.74        31.000         0.048   1000.000   0.020      750.000  0.050    0.000     0.000
            4    150     513.27        31.000         0.048   1000.000   0.020      750.000  0.050    0.000     0.000
            4    151     550.71        31.000         0.048   1000.000   0.020      750.000  0.050    0.000     0.000
            4    152     275.73        31.000         0.048   1000.000   0.020      750.000  0.050    0.000     0.000
            4    153     375.96        31.000         0.048   1000.000   0.020      750.000  0.050    0.000     0.000
            4    154     260.24        31.000         0.048   1000.000   0.020      750.000  0.050    0.000     0.000
            4    155     284.19        31.000         0.048   1000.000   0.020      750.000  0.050    0.000     0.000
            4    156     218.59        31.000         0.048   1000.000   0.020      750.000  0.050    0.000     0.000
            4    157     471.75        31.000         0.048   1000.000   0.020      750.000  0.050    0.000     0.000
            4    158     516.67        31.000         0.048   1000.000   0.020      750.000  0.050    0.000     0.000
            4    159     229.93        31.000         0.048   1000.000   0.020      750.000  0.050    0.000     0.000
            4    160     250.02        31.000         0.048   1000.000   0.020      750.000  0.050    0.000     0.000
            4    161     204.97        31.000         0.048   1000.000   0.020      750.000  0.050    0.000     0.000
            5    162      65.60        31.000         0.048   1000.000   0.020      750.000  0.050    0.000     0.000
            5    163      57.96        31.000         0.048   1000.000   0.020      750.000  0.050    0.000     0.000
            5    164     342.23        31.000         0.048   1000.000   0.020      750.000  0.050    0.000     0.000
            5    165     162.50        31.000         0.048   1000.000   0.020      750.000  0.050    0.000     0.000
            5    166      61.94        31.000         0.048   1000.000   0.020      750.000  0.050    0.000     0.000
            5    167      62.82        31.000         0.048   1000.000   0.020      750.000  0.050    0.000     0.000
            5    168     122.03        31.000         0.048   1000.000   0.020      750.000  0.050    0.000     0.000
            5    169      46.91        31.000         0.048   1000.000   0.020      750.000  0.050    0.000     0.000
            5    170     117.88        31.000         0.048   1000.000   0.020      750.000  0.050    0.000     0.000
            5    171      77.12        31.000         0.048   1000.000   0.020      750.000  0.050    0.000     0.000
            5    172     109.85        31.000         0.048   1000.000   0.020      750.000  0.050    0.000     0.000
            5    173      79.16        31.000         0.048   1000.000   0.020      750.000  0.050    0.000     0.000
            5    174      70.41        31.000         0.048   1000.000   0.020      750.000  0.050    0.000     0.000
            5    175      37.43        31.000         0.048   1000.000   0.020      750.000  0.050    0.000     0.000
            5    176     427.39        31.000         0.048   1000.000   0.020      750.000  0.050    0.000     0.000
            5    177      61.83        31.000         0.048   1000.000   0.020      750.000  0.050    0.000     0.000
            5    178      95.41        31.000         0.048   1000.000   0.020      750.000  0.050    0.000     0.000
            5    179     361.40        31.000         0.048   1000.000   0.020      750.000  0.050    0.000     0.000
            5    180     115.46        31.000         0.048   1000.000   0.020      750.000  0.050    0.000     0.000
            5    181     164.70        31.000         0.048   1000.000   0.020      750.000  0.050    0.000     0.000
            5    182     126.60        31.000         0.048   1000.000   0.020      750.000  0.050    0.000     0.000
            5    183     181.64        31.000         0.048   1000.000   0.020      750.000  0.050    0.000     0.000
            5    184     324.91        31.000         0.048   1000.000   0.020      750.000  0.050    0.000     0.000
            5    185     110.69        31.000         0.048   1000.000   0.020      750.000  0.050    0.000     0.000
            5    186      66.47        31.000         0.048   1000.000   0.020      750.000  0.050    0.000     0.000
            5    187     329.29        31.000         0.048   1000.000   0.020      750.000  0.050    0.000     0.000
            5    188     244.08        31.000         0.048   1000.000   0.020      750.000  0.050    0.000     0.000
            5    189     786.53        31.000         0.048   1000.000   0.020      750.000  0.050    0.000     0.000
            5    190     227.72        31.000         0.048   1000.000   0.020      750.000  0.050    0.000     0.000
            5    191      87.42        31.000         0.048   1000.000   0.020      750.000  0.050    0.000     0.000
            5    192     294.02        31.000         0.048   1000.000   0.020      750.000  0.050    0.000     0.000
            5    193     814.09        31.000         0.048   1000.000   0.020      750.000  0.050    0.000     0.000
            5    194     375.87        31.000         0.048   1000.000   0.020      750.000  0.050    0.000     0.000
            5    195     305.68        31.000         0.048   1000.000   0.020      750.000  0.050    0.000     0.000
            5    196     742.57        31.000         0.048   1000.000   0.020      750.000  0.050    0.000     0.000
            5    197     261.59        31.000         0.048   1000.000   0.020      750.000  0.050    0.000     0.000
            5    198     672.53        31.000         0.048   1000.000   0.020      750.000  0.050    0.000     0.000
            5    199     534.83        31.000         0.048   1000.000   0.020      750.000  0.050    0.000     0.000

         Tributary/Main Channel Characteristics
              |--------------Tributary--------------------|---------------------Main---------------------------|
          Sub  Length(km) Slope Width(m) Cond(mm/hr)     N Length(km) Slope Width(m) Depth(m) Cond(mm/hr)     N
            1       46.58 0.003    27.05      0.0000 0.014      37.74 0.001    52.69     1.54      0.0000 0.014
            2       13.41 0.008    11.50      0.0000 0.014       6.71 0.003    30.47     1.07      0.0000 0.014
            3       25.84 0.008    15.77      0.0000 0.014       5.16 0.004    15.77     0.69      0.0000 0.014
            4       30.69 0.006    23.98      0.0000 0.014       9.03 0.003    23.98     0.91      0.0000 0.014
            5       32.67 0.006    19.35      0.0000 0.014      18.50 0.004    19.35     0.79      0.0000 0.014
